@<TRIPOS>MOLECULE
PCB
   43    42     1     0     0
SMALL
resp


@<TRIPOS>ATOM
      1 C1         -3.2450    1.6370   -0.3220 c3        1 PCB      0.114490
      2 H1         -3.6890    2.1090    0.5470 hc        1 PCB     -0.014434
      3 H2         -2.8970    2.4420   -0.9640 hc        1 PCB     -0.014434
      4 C2         -4.3210    0.8370   -1.0600 c3        1 PCB     -0.209181
      5 H3         -4.7040    0.0200   -0.4550 hc        1 PCB      0.054324
      6 H4         -5.1600    1.4800   -1.3000 hc        1 PCB      0.054324
      7 H5         -3.9540    0.4180   -1.9890 hc        1 PCB      0.054324
      8 C3         -1.9970    0.8400    0.1270 c3        1 PCB      0.190352
      9 C4         -1.0680    1.7740    0.9270 c3        1 PCB     -0.347029
     10 H6         -0.1950    1.2420    1.2930 hc        1 PCB      0.086932
     11 H7         -0.7190    2.5760    0.2850 hc        1 PCB      0.086932
     12 H8         -1.5780    2.2180    1.7730 hc        1 PCB      0.086932
     13 C5         -1.2320    0.2640   -1.0700 c3        1 PCB     -0.347029
     14 H9         -1.8190   -0.4600   -1.6180 hc        1 PCB      0.086932
     15 H10        -0.9570    1.0680   -1.7470 hc        1 PCB      0.086932
     16 H11        -0.3250   -0.2320   -0.7480 hc        1 PCB      0.086932
     17 C6         -2.4150   -0.3080    1.0370 c         1 PCB      0.838994
     18 O1         -2.1610   -1.4560    0.8780 o         1 PCB     -0.619695
     19 O2         -3.1190    0.1110    2.0980 os        1 PCB     -0.483708
     20 C7         -3.5510   -0.8830    3.0020 c3        1 PCB      0.005031
     21 H12        -4.1910   -1.5840    2.4880 h1        1 PCB      0.110308
     22 H13        -2.6950   -1.4200    3.3820 h1        1 PCB      0.110308
     23 C8         -4.2790   -0.0930    4.0840 c3        1 PCB     -0.127975
     24 H14        -3.5840    0.5980    4.5380 hx        1 PCB      0.139939
     25 H15        -5.0770    0.4780    3.6350 hx        1 PCB      0.139939
     26 N1         -4.8940   -0.8950    5.1910 n4        1 PCB      0.131934
     27 C9         -3.8900   -1.7890    5.8280 c3        1 PCB     -0.198765
     28 H16        -4.3300   -2.2390    6.7010 hx        1 PCB      0.117538
     29 H17        -3.6000   -2.5660    5.1380 hx        1 PCB      0.117538
     30 H18        -3.0240   -1.2080    6.1130 hx        1 PCB      0.117538
     31 C10        -6.0250   -1.7300    4.6620 c3        1 PCB     -0.198765
     32 H19        -6.4520   -2.3000    5.4700 hx        1 PCB      0.117538
     33 H20        -6.7850   -1.0780    4.2670 hx        1 PCB      0.117538
     34 H21        -5.6340   -2.3970    3.9090 hx        1 PCB      0.117538
     35 C11        -5.3820    0.1310    6.2270 c3        1 PCB      0.033739
     36 H22        -4.4710    0.5540    6.6330 hx        1 PCB      0.035018
     37 H23        -5.9260    0.8780    5.6740 hx        1 PCB      0.035018
     38 C12        -6.3170   -0.4090    7.2930 c3        1 PCB      0.036425
     39 H24        -6.3940    0.3820    8.0350 hc        1 PCB     -0.023705
     40 H25        -5.9360   -1.2830    7.8080 hc        1 PCB     -0.023705
     41 C13        -7.7530   -0.6700    6.7290 c         1 PCB      0.827363
     42 O3         -8.3170   -1.6500    7.1890 o         1 PCB     -0.765113
     43 O4         -8.0960    0.1350    5.8570 o         1 PCB     -0.765113
@<TRIPOS>BOND
     1    1    2 1   
     2    1    3 1   
     3    1    4 1   
     4    1    8 1   
     5    4    5 1   
     6    4    6 1   
     7    4    7 1   
     8    8    9 1   
     9    8   13 1   
    10    8   17 1   
    11    9   10 1   
    12    9   11 1   
    13    9   12 1   
    14   13   14 1   
    15   13   15 1   
    16   13   16 1   
    17   17   18 2   
    18   17   19 1   
    19   19   20 1   
    20   20   21 1   
    21   20   22 1   
    22   20   23 1   
    23   23   24 1   
    24   23   25 1   
    25   23   26 1   
    26   26   27 1   
    27   26   31 1   
    28   26   35 1   
    29   27   28 1   
    30   27   29 1   
    31   27   30 1   
    32   31   32 1   
    33   31   33 1   
    34   31   34 1   
    35   35   36 1   
    36   35   37 1   
    37   35   38 1   
    38   38   39 1   
    39   38   40 1   
    40   38   41 1   
    41   41   42 1   
    42   41   43 1   
@<TRIPOS>SUBSTRUCTURE
     1 PCB         1 TEMP              0 ****  ****    0 ROOT
