@<TRIPOS>MOLECULE
PEG
   24    23     1     0     0
SMALL
resp


@<TRIPOS>ATOM
      1 H1         -6.0200   -0.3920   -0.0010 ho        1 PEG      0.450218
      2 O1         -5.2770    0.1930   -0.0020 oh        1 PEG     -0.749792
      3 C1         -4.0880   -0.5510    0.0000 c3        1 PEG      0.293430
      4 H2         -4.0150   -1.1830    0.8810 h1        1 PEG     -0.011215
      5 H3         -4.0150   -1.1880   -0.8770 h1        1 PEG     -0.011215
      6 C2         -2.9420    0.4390   -0.0020 c3        1 PEG      0.350480
      7 H4         -3.0090    1.0790    0.8750 h1        1 PEG     -0.004535
      8 H5         -3.0090    1.0740   -0.8830 h1        1 PEG     -0.004535
      9 O2         -1.7510   -0.2880   -0.0000 os        1 PEG     -0.609371
     10 C3         -0.5920    0.4890   -0.0020 c3        1 PEG      0.334763
     11 H6         -0.5530    1.1260   -0.8820 h1        1 PEG     -0.019114
     12 H7         -0.5530    1.1300    0.8760 h1        1 PEG     -0.019114
     13 C4          0.5930   -0.4540   -0.0000 c3        1 PEG      0.334763
     14 H8          0.5540   -1.0950   -0.8780 h1        1 PEG     -0.019114
     15 H9          0.5530   -1.0920    0.8800 h1        1 PEG     -0.019114
     16 O3          1.7520    0.3220   -0.0010 os        1 PEG     -0.609371
     17 C5          2.9430   -0.4050   -0.0010 c3        1 PEG      0.350480
     18 H10         3.0100   -1.0420    0.8780 h1        1 PEG     -0.004535
     19 H11         3.0100   -1.0420   -0.8800 h1        1 PEG     -0.004535
     20 C6          4.0880    0.5850   -0.0020 c3        1 PEG      0.293430
     21 H12         4.0160    1.2190    0.8770 h1        1 PEG     -0.011215
     22 H13         4.0150    1.2190   -0.8820 h1        1 PEG     -0.011215
     23 O4          5.2770   -0.1590   -0.0020 oh        1 PEG     -0.749792
     24 H14         6.0210    0.4260   -0.0030 ho        1 PEG      0.450218
@<TRIPOS>BOND
     1    1    2 1   
     2    2    3 1   
     3    3    4 1   
     4    3    5 1   
     5    3    6 1   
     6    6    7 1   
     7    6    8 1   
     8    6    9 1   
     9    9   10 1   
    10   10   11 1   
    11   10   12 1   
    12   10   13 1   
    13   13   14 1   
    14   13   15 1   
    15   13   16 1   
    16   16   17 1   
    17   17   18 1   
    18   17   19 1   
    19   17   20 1   
    20   20   21 1   
    21   20   22 1   
    22   20   23 1   
    23   23   24 1   
@<TRIPOS>SUBSTRUCTURE
     1 PEG         1 TEMP              0 ****  ****    0 ROOT
