@<TRIPOS>MOLECULE
PEG
   41    40     1     0     0
SMALL
resp


@<TRIPOS>ATOM
      1 C1         -3.8820    1.1750    0.0780 c3        1 PEG      0.138311
      2 H1         -3.4850    0.1720    0.1470 h1        1 PEG      0.028753
      3 H2         -3.5240    1.6340   -0.8420 h1        1 PEG      0.028753
      4 H3         -4.9680    1.1230    0.0380 h1        1 PEG      0.028753
      5 O1         -3.4470    1.8780    1.1980 os        1 PEG     -0.463010
      6 C2         -3.8820    3.2010    1.2510 c3        1 PEG      0.189511
      7 H4         -4.9690    3.2540    1.2620 h1        1 PEG      0.014517
      8 H5         -3.5320    3.7620    0.3860 h1        1 PEG      0.014517
      9 C3         -3.3280    3.8180    2.5170 c3        1 PEG      0.361460
     10 H6         -2.2410    3.7660    2.5050 h1        1 PEG     -0.023153
     11 H7         -3.6780    3.2580    3.3820 h1        1 PEG     -0.023153
     12 O2         -3.7640    5.1430    2.5700 os        1 PEG     -0.595387
     13 C4         -3.3330    5.8550    3.6900 c3        1 PEG      0.332446
     14 H8         -2.2470    5.8960    3.7310 h1        1 PEG     -0.010723
     15 H9         -3.6840    5.3880    4.6070 h1        1 PEG     -0.010723
     16 C5         -3.8930    7.2580    3.5840 c3        1 PEG      0.308446
     17 H10        -3.5420    7.7260    2.6670 h1        1 PEG     -0.009683
     18 H11        -4.9790    7.2180    3.5430 h1        1 PEG     -0.009683
     19 O3         -3.4620    7.9710    4.7030 os        1 PEG     -0.617097
     20 C6         -3.8980    9.2960    4.7560 c3        1 PEG      0.376429
     21 H12        -4.9840    9.3470    4.7680 h1        1 PEG     -0.020770
     22 H13        -3.5470    9.8550    3.8920 h1        1 PEG     -0.020770
     23 C7         -3.3430    9.9120    6.0230 c3        1 PEG      0.295750
     24 H14        -2.2570    9.8600    6.0110 h1        1 PEG     -0.008280
     25 H15        -3.6940    9.3520    6.8880 h1        1 PEG     -0.008280
     26 O4         -3.7790   11.2360    6.0760 os        1 PEG     -0.620258
     27 C8         -3.3480   11.9490    7.1960 c3        1 PEG      0.409765
     28 H16        -2.2620   11.9900    7.2370 h1        1 PEG     -0.027549
     29 H17        -3.6990   11.4820    8.1130 h1        1 PEG     -0.027549
     30 C9         -3.9080   13.3520    7.0900 c3        1 PEG      0.272680
     31 H18        -3.5570   13.8200    6.1730 h1        1 PEG     -0.006882
     32 H19        -4.9940   13.3120    7.0490 h1        1 PEG     -0.006882
     33 O5         -3.4770   14.0650    8.2100 os        1 PEG     -0.623657
     34 C10        -3.9130   15.3900    8.2630 c3        1 PEG      0.405342
     35 H20        -4.9990   15.4420    8.2750 h1        1 PEG     -0.013898
     36 H21        -3.5620   15.9500    7.3990 h1        1 PEG     -0.013898
     37 C11        -3.3590   16.0080    9.5290 c3        1 PEG      0.267183
     38 H22        -2.2740   15.9510    9.5120 h1        1 PEG     -0.006286
     39 H23        -3.7120   15.4430   10.3880 h1        1 PEG     -0.006286
     40 O6         -3.8050   17.3370    9.5690 oh        1 PEG     -0.753526
     41 H24        -3.4780   17.7610   10.3500 ho        1 PEG      0.454768
@<TRIPOS>BOND
     1    1    2 1   
     2    1    3 1   
     3    1    4 1   
     4    1    5 1   
     5    5    6 1   
     6    6    7 1   
     7    6    8 1   
     8    6    9 1   
     9    9   10 1   
    10    9   11 1   
    11    9   12 1   
    12   12   13 1   
    13   13   14 1   
    14   13   15 1   
    15   13   16 1   
    16   16   17 1   
    17   16   18 1   
    18   16   19 1   
    19   19   20 1   
    20   20   21 1   
    21   20   22 1   
    22   20   23 1   
    23   23   24 1   
    24   23   25 1   
    25   23   26 1   
    26   26   27 1   
    27   27   28 1   
    28   27   29 1   
    29   27   30 1   
    30   30   31 1   
    31   30   32 1   
    32   30   33 1   
    33   33   34 1   
    34   34   35 1   
    35   34   36 1   
    36   34   37 1   
    37   37   38 1   
    38   37   39 1   
    39   37   40 1   
    40   40   41 1   
@<TRIPOS>SUBSTRUCTURE
     1 PEG         1 TEMP              0 ****  ****    0 ROOT
