@<TRIPOS>MOLECULE
PEG
   20    19     1     0     0
SMALL
resp


@<TRIPOS>ATOM
      1 C1         -3.8880    1.0840    0.0160 c3        1 PEG      0.129310
      2 H1         -3.4920    0.0800    0.0830 h1        1 PEG      0.030055
      3 H2         -3.5310    1.5440   -0.9030 h1        1 PEG      0.030055
      4 H3         -4.9740    1.0340   -0.0220 h1        1 PEG      0.030055
      5 O1         -3.4500    1.7840    1.1380 os        1 PEG     -0.463502
      6 C2         -3.8840    3.1080    1.1930 c3        1 PEG      0.230564
      7 H4         -4.9710    3.1620    1.2060 h1        1 PEG      0.004842
      8 H5         -3.5340    3.6690    0.3290 h1        1 PEG      0.004842
      9 C3         -3.3280    3.7220    2.4610 c3        1 PEG      0.334517
     10 H6         -2.2420    3.6690    2.4480 h1        1 PEG     -0.023820
     11 H7         -3.6790    3.1610    3.3240 h1        1 PEG     -0.023820
     12 O2         -3.7620    5.0470    2.5160 os        1 PEG     -0.602725
     13 C4         -3.3300    5.7570    3.6370 c3        1 PEG      0.380880
     14 H8         -2.2440    5.7960    3.6770 h1        1 PEG     -0.007522
     15 H9         -3.6800    5.2890    4.5540 h1        1 PEG     -0.007522
     16 C5         -3.8870    7.1610    3.5370 c3        1 PEG      0.263704
     17 H10        -3.5340    7.6230    2.6190 h1        1 PEG     -0.006314
     18 H11        -4.9720    7.1150    3.4960 h1        1 PEG     -0.006314
     19 O3         -3.4440    7.8620    4.6680 oh        1 PEG     -0.755922
     20 H12        -3.7730    8.7490    4.6430 ho        1 PEG      0.458637
@<TRIPOS>BOND
     1    1    2 1   
     2    1    3 1   
     3    1    4 1   
     4    1    5 1   
     5    5    6 1   
     6    6    7 1   
     7    6    8 1   
     8    6    9 1   
     9    9   10 1   
    10    9   11 1   
    11    9   12 1   
    12   12   13 1   
    13   13   14 1   
    14   13   15 1   
    15   13   16 1   
    16   16   17 1   
    17   16   18 1   
    18   16   19 1   
    19   19   20 1   
@<TRIPOS>SUBSTRUCTURE
     1 PEG         1 TEMP              0 ****  ****    0 ROOT
