@<TRIPOS>MOLECULE
MEO
   37    36     1     0     0
SMALL
resp


@<TRIPOS>ATOM
      1 C1          0.3800    0.1270   -0.7000 c3        1 MEO     -0.038650
      2 H1          1.3110    0.3270   -0.1830 hc        1 MEO      0.027992
      3 H2          0.6410   -0.3220   -1.6550 hc        1 MEO      0.027992
      4 C2         -0.3380    1.4540   -0.9560 c3        1 MEO     -0.163832
      5 H3          0.3240    2.1350   -1.4810 hc        1 MEO      0.042159
      6 H4         -1.2230    1.3260   -1.5710 hc        1 MEO      0.042159
      7 H5         -0.6310    1.9330   -0.0290 hc        1 MEO      0.042159
      8 C3         -0.4050   -0.9290    0.1050 c3        1 MEO      0.162002
      9 C4          0.4410   -2.2160    0.1920 c3        1 MEO     -0.379589
     10 H6          1.4100   -2.0180    0.6390 hc        1 MEO      0.098469
     11 H7         -0.0580   -2.9770    0.7820 hc        1 MEO      0.098469
     12 H8          0.6060   -2.6170   -0.8030 hc        1 MEO      0.098469
     13 C5         -1.7550   -1.2560   -0.5540 c3        1 MEO     -0.379589
     14 H9         -2.4410   -0.4180   -0.5150 hc        1 MEO      0.098469
     15 H10        -1.5960   -1.5100   -1.5980 hc        1 MEO      0.098469
     16 H11        -2.2330   -2.0970   -0.0710 hc        1 MEO      0.098469
     17 C6         -0.5970   -0.4450    1.5400 c         1 MEO      0.933602
     18 O1          0.0470    0.4060    2.0650 o         1 MEO     -0.639389
     19 O2         -1.5410   -1.1220    2.1840 os        1 MEO     -0.561617
     20 C7         -1.7640   -0.8000    3.5490 c3        1 MEO      0.079639
     21 H12        -0.8630   -0.9660    4.1210 h1        1 MEO      0.071925
     22 H13        -2.0420    0.2400    3.6430 h1        1 MEO      0.071925
     23 C8         -2.8810   -1.7030    4.0260 c3        1 MEO      0.382196
     24 H14        -3.7760   -1.5360    3.4300 h1        1 MEO     -0.010921
     25 H15        -2.5930   -2.7460    3.9080 h1        1 MEO     -0.010921
     26 O3         -3.1100   -1.3970    5.3650 os        1 MEO     -0.564656
     27 C9         -4.1210   -2.1440    5.9730 c3        1 MEO      0.296909
     28 H16        -5.0710   -1.9960    5.4650 h1        1 MEO     -0.012688
     29 H17        -3.8890   -3.2060    5.9440 h1        1 MEO     -0.012688
     30 C10        -4.2320   -1.6840    7.4110 c3        1 MEO      0.224731
     31 H18        -3.2810   -1.8310    7.9180 h1        1 MEO      0.008405
     32 H19        -4.4630   -0.6210    7.4400 h1        1 MEO      0.008405
     33 O4         -5.2420   -2.4310    8.0160 os        1 MEO     -0.455535
     34 C11        -5.4640   -2.1180    9.3540 c3        1 MEO      0.111505
     35 H20        -6.2610   -2.7560    9.7110 h1        1 MEO      0.035186
     36 H21        -4.5740   -2.2940    9.9560 h1        1 MEO      0.035186
     37 H22        -5.7620   -1.0790    9.4750 h1        1 MEO      0.035186
@<TRIPOS>BOND
     1    1    2 1   
     2    1    3 1   
     3    1    4 1   
     4    1    8 1   
     5    4    5 1   
     6    4    6 1   
     7    4    7 1   
     8    8    9 1   
     9    8   13 1   
    10    8   17 1   
    11    9   10 1   
    12    9   11 1   
    13    9   12 1   
    14   13   14 1   
    15   13   15 1   
    16   13   16 1   
    17   17   18 2   
    18   17   19 1   
    19   19   20 1   
    20   20   21 1   
    21   20   22 1   
    22   20   23 1   
    23   23   24 1   
    24   23   25 1   
    25   23   26 1   
    26   26   27 1   
    27   27   28 1   
    28   27   29 1   
    29   27   30 1   
    30   30   31 1   
    31   30   32 1   
    32   30   33 1   
    33   33   34 1   
    34   34   35 1   
    35   34   36 1   
    36   34   37 1   
@<TRIPOS>SUBSTRUCTURE
     1 MEO         1 TEMP              0 ****  ****    0 ROOT
