@<TRIPOS>MOLECULE
PEG
   27    26     1     0     0
SMALL
resp


@<TRIPOS>ATOM
      1 C1         -3.8740    1.1040    0.0490 c3        1 PEG      0.133934
      2 H1         -3.4750    0.1020    0.1220 h1        1 PEG      0.029461
      3 H2         -3.5170    1.5600   -0.8720 h1        1 PEG      0.029461
      4 H3         -4.9600    1.0500    0.0090 h1        1 PEG      0.029461
      5 O1         -3.4410    1.8110    1.1680 os        1 PEG     -0.462140
      6 C2         -3.8800    3.1340    1.2150 c3        1 PEG      0.205824
      7 H4         -4.9670    3.1840    1.2250 h1        1 PEG      0.011139
      8 H5         -3.5300    3.6920    0.3490 h1        1 PEG      0.011139
      9 C3         -3.3280    3.7560    2.4800 c3        1 PEG      0.336390
     10 H6         -2.2420    3.7060    2.4700 h1        1 PEG     -0.019795
     11 H7         -3.6790    3.1980    3.3460 h1        1 PEG     -0.019795
     12 O2         -3.7670    5.0800    2.5280 os        1 PEG     -0.591593
     13 C4         -3.3390    5.7970    3.6460 c3        1 PEG      0.373649
     14 H8         -2.2530    5.8390    3.6880 h1        1 PEG     -0.018717
     15 H9         -3.6900    5.3320    4.5640 h1        1 PEG     -0.018717
     16 C5         -3.9010    7.1990    3.5360 c3        1 PEG      0.275512
     17 H10        -3.5500    7.6640    2.6170 h1        1 PEG     -0.008509
     18 H11        -4.9870    7.1560    3.4940 h1        1 PEG     -0.008509
     19 O3         -3.4730    7.9160    4.6530 os        1 PEG     -0.624619
     20 C6         -3.9120    9.2400    4.7010 c3        1 PEG      0.417012
     21 H12        -4.9980    9.2900    4.7120 h1        1 PEG     -0.016476
     22 H13        -3.5610    9.7980    3.8360 h1        1 PEG     -0.016476
     23 C7         -3.3610    9.8630    5.9660 c3        1 PEG      0.265499
     24 H14        -2.2760    9.8090    5.9500 h1        1 PEG     -0.006627
     25 H15        -3.7130    9.3010    6.8270 h1        1 PEG     -0.006627
     26 O4         -3.8090   11.1920    6.0010 oh        1 PEG     -0.756584
     27 H16        -3.4840   11.6180    6.7810 ho        1 PEG      0.456701
@<TRIPOS>BOND
     1    1    2 1   
     2    1    3 1   
     3    1    4 1   
     4    1    5 1   
     5    5    6 1   
     6    6    7 1   
     7    6    8 1   
     8    6    9 1   
     9    9   10 1   
    10    9   11 1   
    11    9   12 1   
    12   12   13 1   
    13   13   14 1   
    14   13   15 1   
    15   13   16 1   
    16   16   17 1   
    17   16   18 1   
    18   16   19 1   
    19   19   20 1   
    20   20   21 1   
    21   20   22 1   
    22   20   23 1   
    23   23   24 1   
    24   23   25 1   
    25   23   26 1   
    26   26   27 1   
@<TRIPOS>SUBSTRUCTURE
     1 PEG         1 TEMP              0 ****  ****    0 ROOT
