@<TRIPOS>MOLECULE
PEG
   48    47     1     0     0
SMALL
resp


@<TRIPOS>ATOM
      1 C1         -3.8920    1.2170    0.0840 c3        1 PEG      0.139081
      2 H1         -3.4970    0.2130    0.1510 h1        1 PEG      0.028630
      3 H2         -3.5350    1.6760   -0.8350 h1        1 PEG      0.028630
      4 H3         -4.9790    1.1660    0.0450 h1        1 PEG      0.028630
      5 O1         -3.4550    1.9160    1.2060 os        1 PEG     -0.463742
      6 C2         -3.8890    3.2400    1.2620 c3        1 PEG      0.188640
      7 H4         -4.9760    3.2940    1.2740 h1        1 PEG      0.014505
      8 H5         -3.5390    3.8020    0.3980 h1        1 PEG      0.014505
      9 C3         -3.3330    3.8530    2.5290 c3        1 PEG      0.368501
     10 H6         -2.2470    3.8000    2.5160 h1        1 PEG     -0.024774
     11 H7         -3.6840    3.2920    3.3930 h1        1 PEG     -0.024774
     12 O2         -3.7670    5.1780    2.5860 os        1 PEG     -0.599183
     13 C4         -3.3340    5.8880    3.7060 c3        1 PEG      0.329592
     14 H8         -2.2480    5.9270    3.7460 h1        1 PEG     -0.010154
     15 H9         -3.6850    5.4190    4.6230 h1        1 PEG     -0.010154
     16 C5         -3.8930    7.2920    3.6040 c3        1 PEG      0.321243
     17 H10        -3.5420    7.7610    2.6880 h1        1 PEG     -0.011972
     18 H11        -4.9790    7.2530    3.5640 h1        1 PEG     -0.011972
     19 O3         -3.4600    8.0020    4.7250 os        1 PEG     -0.622171
     20 C6         -3.8940    9.3270    4.7810 c3        1 PEG      0.365559
     21 H12        -4.9800    9.3800    4.7940 h1        1 PEG     -0.019448
     22 H13        -3.5430    9.8880    3.9170 h1        1 PEG     -0.019448
     23 C7         -3.3370    9.9390    6.0490 c3        1 PEG      0.321732
     24 H14        -2.2510    9.8860    6.0360 h1        1 PEG     -0.012586
     25 H15        -3.6880    9.3780    6.9120 h1        1 PEG     -0.012586
     26 O4         -3.7710   11.2640    6.1050 os        1 PEG     -0.624559
     27 C8         -3.3390   11.9740    7.2260 c3        1 PEG      0.378785
     28 H16        -2.2520   12.0130    7.2660 h1        1 PEG     -0.021260
     29 H17        -3.6890   11.5050    8.1420 h1        1 PEG     -0.021260
     30 C9         -3.8970   13.3780    7.1230 c3        1 PEG      0.290359
     31 H18        -3.5460   13.8470    6.2070 h1        1 PEG     -0.006074
     32 H19        -4.9830   13.3390    7.0830 h1        1 PEG     -0.006074
     33 O5         -3.4650   14.0880    8.2440 os        1 PEG     -0.616559
     34 C10        -3.8990   15.4130    8.3000 c3        1 PEG      0.395705
     35 H20        -4.9850   15.4660    8.3130 h1        1 PEG     -0.025128
     36 H21        -3.5480   15.9740    7.4370 h1        1 PEG     -0.025128
     37 C11        -3.3420   16.0260    9.5680 c3        1 PEG      0.288863
     38 H22        -2.2560   15.9730    9.5560 h1        1 PEG     -0.010522
     39 H23        -3.6930   15.4650   10.4320 h1        1 PEG     -0.010522
     40 O6         -3.7760   17.3500    9.6240 os        1 PEG     -0.624592
     41 C12        -3.3440   18.0610   10.7450 c3        1 PEG      0.401705
     42 H24        -2.2570   18.1010   10.7850 h1        1 PEG     -0.013262
     43 H25        -3.6950   17.5930   11.6620 h1        1 PEG     -0.013262
     44 C13        -3.9010   19.4650   10.6450 c3        1 PEG      0.265631
     45 H26        -4.9860   19.4190   10.6030 h1        1 PEG     -0.005522
     46 H27        -3.5480   19.9270    9.7270 h1        1 PEG     -0.005522
     47 O7         -3.4590   20.1660   11.7760 oh        1 PEG     -0.752755
     48 H28        -3.7870   21.0530   11.7510 ho        1 PEG      0.454671
@<TRIPOS>BOND
     1    1    2 1   
     2    1    3 1   
     3    1    4 1   
     4    1    5 1   
     5    5    6 1   
     6    6    7 1   
     7    6    8 1   
     8    6    9 1   
     9    9   10 1   
    10    9   11 1   
    11    9   12 1   
    12   12   13 1   
    13   13   14 1   
    14   13   15 1   
    15   13   16 1   
    16   16   17 1   
    17   16   18 1   
    18   16   19 1   
    19   19   20 1   
    20   20   21 1   
    21   20   22 1   
    22   20   23 1   
    23   23   24 1   
    24   23   25 1   
    25   23   26 1   
    26   26   27 1   
    27   27   28 1   
    28   27   29 1   
    29   27   30 1   
    30   30   31 1   
    31   30   32 1   
    32   30   33 1   
    33   33   34 1   
    34   34   35 1   
    35   34   36 1   
    36   34   37 1   
    37   37   38 1   
    38   37   39 1   
    39   37   40 1   
    40   40   41 1   
    41   41   42 1   
    42   41   43 1   
    43   41   44 1   
    44   44   45 1   
    45   44   46 1   
    46   44   47 1   
    47   47   48 1   
@<TRIPOS>SUBSTRUCTURE
     1 PEG         1 TEMP              0 ****  ****    0 ROOT
