@<TRIPOS>MOLECULE
PEG
   34    33     1     0     0
SMALL
resp


@<TRIPOS>ATOM
      1 C1         -3.8900    1.1490    0.0490 c3        1 PEG      0.137422
      2 H1         -3.4940    0.1450    0.1160 h1        1 PEG      0.028881
      3 H2         -3.5330    1.6090   -0.8700 h1        1 PEG      0.028881
      4 H3         -4.9760    1.0990    0.0100 h1        1 PEG      0.028881
      5 O1         -3.4530    1.8490    1.1710 os        1 PEG     -0.462923
      6 C2         -3.8870    3.1730    1.2260 c3        1 PEG      0.193635
      7 H4         -4.9740    3.2270    1.2390 h1        1 PEG      0.013437
      8 H5         -3.5370    3.7350    0.3620 h1        1 PEG      0.013437
      9 C3         -3.3310    3.7860    2.4940 c3        1 PEG      0.357300
     10 H6         -2.2450    3.7340    2.4810 h1        1 PEG     -0.022896
     11 H7         -3.6820    3.2260    3.3570 h1        1 PEG     -0.022896
     12 O2         -3.7650    5.1120    2.5490 os        1 PEG     -0.595353
     13 C4         -3.3330    5.8220    3.6700 c3        1 PEG      0.345031
     14 H8         -2.2470    5.8610    3.7100 h1        1 PEG     -0.012708
     15 H9         -3.6840    5.3530    4.5860 h1        1 PEG     -0.012708
     16 C5         -3.8920    7.2260    3.5670 c3        1 PEG      0.290967
     17 H10        -3.5410    7.6940    2.6510 h1        1 PEG     -0.007222
     18 H11        -4.9780    7.1870    3.5270 h1        1 PEG     -0.007222
     19 O3         -3.4590    7.9360    4.6880 os        1 PEG     -0.617349
     20 C6         -3.8940    9.2610    4.7440 c3        1 PEG      0.406384
     21 H12        -4.9800    9.3140    4.7560 h1        1 PEG     -0.027252
     22 H13        -3.5430    9.8220    3.8800 h1        1 PEG     -0.027252
     23 C7         -3.3370    9.8740    6.0110 c3        1 PEG      0.287299
     24 H14        -2.2510    9.8220    5.9990 h1        1 PEG     -0.010773
     25 H15        -3.6880    9.3140    6.8750 h1        1 PEG     -0.010773
     26 O4         -3.7710   11.1990    6.0670 os        1 PEG     -0.629665
     27 C8         -3.3390   11.9100    7.1870 c3        1 PEG      0.413075
     28 H16        -2.2530   11.9500    7.2280 h1        1 PEG     -0.015645
     29 H17        -3.6900   11.4420    8.1040 h1        1 PEG     -0.015645
     30 C9         -3.8970   13.3140    7.0870 c3        1 PEG      0.262370
     31 H18        -3.5440   13.7760    6.1690 h1        1 PEG     -0.005103
     32 H19        -4.9810   13.2680    7.0450 h1        1 PEG     -0.005103
     33 O5         -3.4550   14.0150    8.2180 oh        1 PEG     -0.754198
     34 H20        -3.7830   14.9020    8.1930 ho        1 PEG      0.455686
@<TRIPOS>BOND
     1    1    2 1   
     2    1    3 1   
     3    1    4 1   
     4    1    5 1   
     5    5    6 1   
     6    6    7 1   
     7    6    8 1   
     8    6    9 1   
     9    9   10 1   
    10    9   11 1   
    11    9   12 1   
    12   12   13 1   
    13   13   14 1   
    14   13   15 1   
    15   13   16 1   
    16   16   17 1   
    17   16   18 1   
    18   16   19 1   
    19   19   20 1   
    20   20   21 1   
    21   20   22 1   
    22   20   23 1   
    23   23   24 1   
    24   23   25 1   
    25   23   26 1   
    26   26   27 1   
    27   27   28 1   
    28   27   29 1   
    29   27   30 1   
    30   30   31 1   
    31   30   32 1   
    32   30   33 1   
    33   33   34 1   
@<TRIPOS>SUBSTRUCTURE
     1 PEG         1 TEMP              0 ****  ****    0 ROOT
