@<TRIPOS>MOLECULE
PLG
   48    47     1     0     0
SMALL
resp


@<TRIPOS>ATOM
      1 O1         -9.0640    0.0560   -0.4600 oh        1 PLG     -0.695954
      2 H1         -9.5440    0.1740    0.3550 ho        1 PLG      0.495924
      3 C1         -7.8200    0.4800   -0.2830 c         1 PLG      0.647137
      4 O2         -7.4190    0.9350    0.7340 o         1 PLG     -0.563294
      5 C2         -7.0100    0.3270   -1.5580 c3        1 PLG      0.599056
      6 C3         -7.4580    1.3180   -2.6240 c3        1 PLG     -0.437754
      7 O3         -5.6540    0.5960   -1.2770 os        1 PLG     -0.678687
      8 C4         -4.9780   -0.3090   -0.5770 c         1 PLG      0.897253
      9 O4         -5.3970   -1.3720   -0.2750 o         1 PLG     -0.587162
     10 C5         -3.6200    0.2490   -0.2320 c3        1 PLG      0.056165
     11 O5         -2.8530   -0.7830    0.3350 os        1 PLG     -0.577346
     12 C6         -1.6880   -0.4510    0.8660 c         1 PLG      0.852720
     13 O6         -1.2540    0.6510    0.8940 o         1 PLG     -0.599981
     14 C7         -1.0130   -1.6770    1.4570 c3        1 PLG      0.376358
     15 O7          0.3120   -1.3470    1.8140 os        1 PLG     -0.623735
     16 C8          1.1870   -1.1640    0.8310 c         1 PLG      0.922554
     17 O8          0.9610   -1.3630   -0.3120 o         1 PLG     -0.594840
     18 C9          2.4900   -0.6830    1.4180 c3        1 PLG     -0.070877
     19 O9          3.4170   -0.5410    0.3730 os        1 PLG     -0.520092
     20 C10         4.6630   -0.2280    0.7070 c         1 PLG      0.884344
     21 O10         5.0280   -0.0700    1.8210 o         1 PLG     -0.592488
     22 C11         5.5090   -0.1000   -0.5470 c3        1 PLG      0.298024
     23 O11         6.8070    0.2610   -0.1230 os        1 PLG     -0.667467
     24 C12         7.5310    1.0590   -0.9020 c         1 PLG      0.937991
     25 O12         7.1770    1.4730   -1.9510 o         1 PLG     -0.564194
     26 C13         8.8520    1.3410   -0.2230 c3        1 PLG      0.077699
     27 O13         9.6320    2.1380   -1.0470 oh        1 PLG     -0.715477
     28 H2         10.4430    2.3460   -0.6060 ho        1 PLG      0.472086
     29 C14         5.5500   -1.3930   -1.3550 c3        1 PLG     -0.266490
     30 C15        -1.7240   -2.1460    2.7190 c3        1 PLG     -0.299484
     31 H3         -7.1190   -0.6890   -1.9070 h1        1 PLG     -0.010646
     32 H4         -6.8490    1.1920   -3.5100 hc        1 PLG      0.124883
     33 H5         -8.4940    1.1470   -2.8830 hc        1 PLG      0.124883
     34 H6         -7.3430    2.3350   -2.2690 hc        1 PLG      0.124883
     35 H7         -3.1420    0.6350   -1.1210 h1        1 PLG      0.106386
     36 H8         -3.7480    1.0660    0.4640 h1        1 PLG      0.106386
     37 H9         -1.0100   -2.4530    0.7070 h1        1 PLG      0.023384
     38 H10         2.3240    0.2620    1.9160 h1        1 PLG      0.124602
     39 H11         2.8410   -1.3920    2.1550 h1        1 PLG      0.124602
     40 H12         5.0900    0.6950   -1.1470 h1        1 PLG      0.028195
     41 H13         8.6290    1.8150    0.7290 h1        1 PLG      0.055646
     42 H14         9.3190    0.3830   -0.0060 h1        1 PLG      0.055646
     43 H15         6.1580   -1.2410   -2.2370 hc        1 PLG      0.088008
     44 H16         5.9830   -2.1940   -0.7650 hc        1 PLG      0.088008
     45 H17         4.5530   -1.6780   -1.6630 hc        1 PLG      0.088008
     46 H18        -2.7470   -2.4160    2.4920 hc        1 PLG      0.095046
     47 H19        -1.2120   -3.0120    3.1200 hc        1 PLG      0.095046
     48 H20        -1.7200   -1.3650    3.4700 hc        1 PLG      0.095046
@<TRIPOS>BOND
     1    1    2 1   
     2    1    3 1   
     3    3    4 2   
     4    3    5 1   
     5    5    6 1   
     6    5    7 1   
     7    5   31 1   
     8    6   32 1   
     9    6   33 1   
    10    6   34 1   
    11    7    8 1   
    12    8    9 2   
    13    8   10 1   
    14   10   11 1   
    15   10   35 1   
    16   10   36 1   
    17   11   12 1   
    18   12   13 2   
    19   12   14 1   
    20   14   15 1   
    21   14   30 1   
    22   14   37 1   
    23   15   16 1   
    24   16   17 2   
    25   16   18 1   
    26   18   19 1   
    27   18   38 1   
    28   18   39 1   
    29   19   20 1   
    30   20   21 2   
    31   20   22 1   
    32   22   23 1   
    33   22   29 1   
    34   22   40 1   
    35   23   24 1   
    36   24   25 2   
    37   24   26 1   
    38   26   27 1   
    39   26   41 1   
    40   26   42 1   
    41   27   28 1   
    42   29   43 1   
    43   29   44 1   
    44   29   45 1   
    45   30   46 1   
    46   30   47 1   
    47   30   48 1   
@<TRIPOS>SUBSTRUCTURE
     1 PLG         1 TEMP              0 ****  ****    0 ROOT
